Circuit: * D:\GoogleDrive-ITBA\ITBA - Me\2019B\Electronica I\ElectronicaI-TP2\Draft1.asc

WARNING: Node N006 is floating.

WARNING: Less than two connections to node N006.  This node is used by C3.
Direct Newton iteration for .op point succeeded.

Date: Thu Nov 07 18:24:13 2019
Total elapsed time: 0.450 seconds.

tnom = 27
temp = 27
method = modified trap
totiter = 91037
traniter = 91026
tranpoints = 40015
accept = 24018
rejected = 15997
matrix size = 11
fillins = 0
solver = Normal
Matrix Compiler1: 458 bytes object code size  0.1/0.1/[0.1]
Matrix Compiler2: 779 bytes object code size  0.0/0.2/[0.0]

