Circuit: * D:\GoogleDrive-ITBA\ITBA - Me\2019B\Electronica I\ElectronicaI-TP2\TP2-Opcion2.asc

Direct Newton iteration for .op point succeeded.

Date: Sat Nov 09 00:43:50 2019
Total elapsed time: 0.108 seconds.

tnom = 27
temp = 27
method = trap
totiter = 6
traniter = 0
tranpoints = 0
accept = 0
rejected = 0
matrix size = 25
fillins = 0
solver = Normal
Matrix Compiler1:      89 opcodes
Matrix Compiler2: 2.02 KB object code size
