Circuit: * D:\GoogleDrive-ITBA\ITBA - Me\2019B\Electronica I\ElectronicaI-TP2\TP2-Opcion2.asc

WARNING: Less than two connections to node V2.  This node is used by R8.
Direct Newton iteration for .op point succeeded.

Date: Wed Nov 13 17:40:39 2019
Total elapsed time: 0.064 seconds.

tnom = 27
temp = 27
method = trap
totiter = 7
traniter = 0
tranpoints = 0
accept = 0
rejected = 0
matrix size = 26
fillins = 4
solver = Normal
Matrix Compiler1:      98 opcodes
Matrix Compiler2: 2.13 KB object code size
