Circuit: * D:\GoogleDrive-ITBA\ITBA - Me\2019B\Electronica I\ElectronicaI-TP2\TP2-Opcion2.asc

WARNING: Less than two connections to node V2.  This node is used by R8.
Direct Newton iteration for .op point succeeded.

Date: Mon Nov 11 21:52:56 2019
Total elapsed time: 0.076 seconds.

tnom = 27
temp = 27
method = trap
totiter = 6
traniter = 0
tranpoints = 0
accept = 0
rejected = 0
matrix size = 25
fillins = 0
solver = Normal
Matrix Compiler1:      83 opcodes
Matrix Compiler2: 1.96 KB object code size
