Circuit: * D:\GoogleDrive-ITBA\ITBA - Me\2019B\Electronica I\ElectronicaI-TP2\TP2-Opcion2.asc

WARNING: Node NC_02 is floating.

WARNING: Less than two connections to node NC_01.  This node is used by D1.
WARNING: Less than two connections to node NC_02.  This node is used by D1.
Direct Newton iteration for .op point succeeded.

Date: Thu Nov 07 18:57:54 2019
Total elapsed time: 0.092 seconds.

tnom = 27
temp = 27
method = modified trap
totiter = 270
traniter = 248
tranpoints = 125
accept = 125
rejected = 0
matrix size = 25
fillins = 0
solver = Normal
Matrix Compiler1: 1.43 KB object code size  0.3/0.1/[0.1]
Matrix Compiler2: 1.94 KB object code size  0.3/0.3/[0.2]

