Circuit: * D:\GoogleDrive-ITBA\ITBA - Me\2019B\Electronica I\ElectronicaI-TP2\TP2-Opcion2.asc

WARNING: Less than two connections to node V2.  This node is used by R8.
Direct Newton iteration for .op point succeeded.

Date: Tue Nov 12 14:24:20 2019
Total elapsed time: 1.521 seconds.

tnom = 27
temp = 27
method = modified trap
totiter = 343121
traniter = 343115
tranpoints = 120488
accept = 82263
rejected = 38225
matrix size = 26
fillins = 4
solver = Normal
Matrix Compiler1: 1.69 KB object code size  0.4/0.3/[0.1]
Matrix Compiler2: off  [0.4]/0.5/0.4

