Circuit: * D:\GoogleDrive-ITBA\ITBA - Me\2019B\Electronica I\ElectronicaI-TP2\TP2-Opcion2.asc

WARNING: Less than two connections to node V2.  This node is used by R8.
Direct Newton iteration for .op point succeeded.

Date: Tue Nov 12 18:57:30 2019
Total elapsed time: 0.068 seconds.

tnom = 27
temp = 27
method = modified trap
totiter = 966
traniter = 959
tranpoints = 416
accept = 258
rejected = 158
matrix size = 26
fillins = 4
solver = Normal
Matrix Compiler1: 1.69 KB object code size  2.7/1.1/[0.1]
Matrix Compiler2: 2.13 KB object code size  0.6/0.9/[0.3]

