Circuit: * D:\GoogleDrive-ITBA\ITBA - Me\2019B\Electronica I\ElectronicaI-TP2\TP2-Opcion2.asc

Direct Newton iteration for .op point succeeded.

Date: Sat Nov 09 01:06:08 2019
Total elapsed time: 20.051 seconds.

tnom = 27
temp = 27
method = modified trap
totiter = 5833740
traniter = 5833734
tranpoints = 1840057
accept = 1268418
rejected = 571639
matrix size = 25
fillins = 0
solver = Normal
Matrix Compiler1: 1.52 KB object code size  0.4/0.3/[0.1]
Matrix Compiler2: off  [0.2]/0.3/0.3

